*SPEF "ieee 1481-1999"
*DESIGN "gcd"
*DATE "11:11:11 Fri 11 11, 1111"
*VENDOR "OpenRCX"
*PROGRAM "Parallel Extraction"
*VERSION "1.0"
*DESIGN_FLOW "NAME_SCOPE LOCAL" "PIN_CAP NONE"
*DIVIDER /
*DELIMITER :
*BUS_DELIMITER []
*T_UNIT 1 NS
*C_UNIT 1 PF
*R_UNIT 1 OHM
*L_UNIT 1 HENRY

*NAME_MAP
*1 _000_
*2 _001_
*3 _002_
*4 _003_
*5 _004_
*6 _005_
*7 _006_
*8 _007_
*9 _008_
*10 _009_
*11 _010_
*12 _011_
*13 _012_
*14 _013_
*15 _014_
*16 _015_
*17 _016_
*18 _017_
*19 _018_
*20 _019_
*21 _020_
*22 _021_
*23 _022_
*24 _023_
*25 _024_
*26 _025_
*27 _026_
*28 _027_
*29 _028_
*30 _029_
*31 _030_
*32 _031_
*33 _032_
*34 _033_
*35 _034_
*36 _035_
*37 _036_
*38 net13
*39 _038_
*40 _039_
*41 _040_
*42 _041_
*43 _042_
*44 _043_
*45 _044_
*46 _045_
*47 _046_
*48 _047_
*49 _048_
*50 _049_
*51 _050_
*52 _051_
*53 _052_
*54 _053_
*55 _054_
*56 _055_
*57 _056_
*58 _057_
*59 _058_
*60 net12
*61 _060_
*62 _061_
*63 _062_
*64 _063_
*65 _064_
*66 _065_
*67 _066_
*68 _067_
*69 _068_
*70 _069_
*71 _070_
*72 _071_
*73 _072_
*74 _073_
*75 _074_
*76 _075_
*77 _076_
*78 _077_
*79 _078_
*80 _079_
*81 _080_
*82 _081_
*83 _082_
*84 _083_
*85 _084_
*86 _085_
*87 _086_
*88 _087_
*89 _088_
*90 _089_
*91 _090_
*92 _091_
*93 _092_
*94 _093_
*95 _094_
*96 _095_
*97 _096_
*98 _097_
*99 _098_
*100 _099_
*101 _100_
*102 _101_
*103 _102_
*104 _103_
*105 _104_
*106 _105_
*107 _106_
*108 _107_
*109 _108_
*110 _109_
*111 _110_
*112 _111_
*113 _112_
*114 _113_
*115 _114_
*116 _115_
*117 _116_
*118 _117_
*119 _118_
*120 _119_
*121 _120_
*122 _121_
*123 _122_
*124 _123_
*125 _124_
*126 _125_
*127 _126_
*128 _127_
*129 _128_
*130 _129_
*131 _130_
*132 _131_
*133 _132_
*134 _133_
*135 _134_
*136 _135_
*137 _136_
*138 _137_
*139 _138_
*140 _139_
*141 _140_
*142 _141_
*143 _142_
*144 _143_
*145 _144_
*146 _145_
*147 _146_
*148 _147_
*149 _148_
*150 _149_
*151 _150_
*152 _151_
*153 _152_
*154 _153_
*155 _154_
*156 _155_
*157 _156_
*158 _157_
*159 _158_
*160 _159_
*161 _160_
*162 _161_
*163 _162_
*164 _163_
*165 _164_
*166 _165_
*167 net11
*168 _167_
*169 _168_
*170 net10
*171 net9
*172 net8
*173 _172_
*174 net7
*175 _174_
*176 net6
*177 _176_
*178 _177_
*179 _178_
*180 _179_
*181 _180_
*182 _181_
*183 _182_
*184 _183_
*185 _184_
*186 _185_
*187 _186_
*188 _187_
*189 _188_
*190 net5
*191 _190_
*192 _191_
*193 net4
*194 _193_
*195 _194_
*196 _195_
*197 _196_
*198 _197_
*199 _198_
*200 _199_
*201 _200_
*202 net3
*203 net2
*204 _203_
*205 _204_
*206 _205_
*207 _206_
*208 _207_
*209 _208_
*210 _209_
*211 _210_
*212 _211_
*213 _212_
*214 _213_
*215 _214_
*216 _215_
*217 _216_
*218 _217_
*219 _218_
*220 _219_
*221 _220_
*222 _221_
*223 _222_
*224 _223_
*225 _224_
*226 _225_
*227 _226_
*228 _227_
*229 _228_
*230 _229_
*231 _230_
*232 _231_
*233 _232_
*234 _233_
*235 net1
*236 _235_
*237 _236_
*239 _238_
*240 _239_
*241 _240_
*243 _242_
*244 _243_
*245 _244_
*246 _245_
*247 _246_
*248 _247_
*249 _248_
*250 _249_
*251 _250_
*252 _251_
*253 _252_
*254 _253_
*255 _254_
*256 _255_
*257 _256_
*258 _257_
*259 _258_
*260 _259_
*261 _260_
*262 _261_
*263 _262_
*264 _263_
*265 _264_
*266 _265_
*267 _266_
*268 _267_
*269 _268_
*270 _269_
*271 _270_
*272 _271_
*273 _272_
*274 _273_
*275 _274_
*276 _275_
*277 _276_
*278 _277_
*279 _278_
*280 _279_
*281 _280_
*282 _281_
*283 _282_
*284 _283_
*285 _284_
*286 _285_
*287 _286_
*288 _287_
*289 _288_
*290 _289_
*291 _290_
*292 _291_
*293 _292_
*294 _293_
*295 _294_
*296 _295_
*297 _296_
*298 _297_
*299 _298_
*300 _299_
*301 _300_
*302 _301_
*303 _302_
*304 _303_
*305 _304_
*306 _305_
*307 _306_
*308 _307_
*309 _308_
*310 _309_
*311 _310_
*312 _311_
*313 _312_
*314 _313_
*315 _314_
*316 _315_
*317 _316_
*318 _317_
*319 _318_
*320 _319_
*321 _320_
*322 _321_
*323 _322_
*324 _323_
*325 _324_
*326 _325_
*327 _326_
*328 _327_
*329 _328_
*330 _329_
*331 _330_
*332 _331_
*333 _332_
*334 _333_
*335 _334_
*336 _335_
*337 _336_
*338 _337_
*339 _338_
*340 _339_
*341 _340_
*342 _341_
*343 _342_
*344 _343_
*345 _344_
*346 clk
*347 ctrl\.state\.out\[1\]
*348 ctrl\.state\.out\[2\]
*349 dpath\.a_lt_b\$in0\[0\]
*350 dpath\.a_lt_b\$in0\[10\]
*351 dpath\.a_lt_b\$in0\[11\]
*352 dpath\.a_lt_b\$in0\[12\]
*353 dpath\.a_lt_b\$in0\[13\]
*354 dpath\.a_lt_b\$in0\[14\]
*355 dpath\.a_lt_b\$in0\[15\]
*356 dpath\.a_lt_b\$in0\[1\]
*357 dpath\.a_lt_b\$in0\[2\]
*358 dpath\.a_lt_b\$in0\[3\]
*359 dpath\.a_lt_b\$in0\[4\]
*360 dpath\.a_lt_b\$in0\[5\]
*361 dpath\.a_lt_b\$in0\[6\]
*362 dpath\.a_lt_b\$in0\[7\]
*363 dpath\.a_lt_b\$in0\[8\]
*364 dpath\.a_lt_b\$in0\[9\]
*365 dpath\.a_lt_b\$in1\[0\]
*366 dpath\.a_lt_b\$in1\[10\]
*367 dpath\.a_lt_b\$in1\[11\]
*368 dpath\.a_lt_b\$in1\[12\]
*369 dpath\.a_lt_b\$in1\[13\]
*370 dpath\.a_lt_b\$in1\[14\]
*371 dpath\.a_lt_b\$in1\[15\]
*372 dpath\.a_lt_b\$in1\[1\]
*373 dpath\.a_lt_b\$in1\[2\]
*374 dpath\.a_lt_b\$in1\[3\]
*375 dpath\.a_lt_b\$in1\[4\]
*376 dpath\.a_lt_b\$in1\[5\]
*377 dpath\.a_lt_b\$in1\[6\]
*378 dpath\.a_lt_b\$in1\[7\]
*379 dpath\.a_lt_b\$in1\[8\]
*380 dpath\.a_lt_b\$in1\[9\]
*381 req_msg[0]
*382 req_msg[10]
*383 req_msg[11]
*384 req_msg[12]
*385 req_msg[13]
*386 req_msg[14]
*387 req_msg[15]
*388 req_msg[16]
*389 req_msg[17]
*390 req_msg[18]
*391 req_msg[19]
*392 req_msg[1]
*393 req_msg[20]
*394 req_msg[21]
*395 req_msg[22]
*396 req_msg[23]
*397 req_msg[24]
*398 req_msg[25]
*399 req_msg[26]
*400 req_msg[27]
*401 req_msg[28]
*402 req_msg[29]
*403 req_msg[2]
*404 req_msg[30]
*405 req_msg[31]
*406 req_msg[3]
*407 req_msg[4]
*408 req_msg[5]
*409 req_msg[6]
*410 req_msg[7]
*411 req_msg[8]
*412 req_msg[9]
*413 req_rdy
*414 req_val
*415 reset
*416 resp_msg[0]
*417 resp_msg[10]
*418 resp_msg[11]
*419 resp_msg[12]
*420 resp_msg[13]
*421 resp_msg[14]
*422 resp_msg[15]
*423 resp_msg[1]
*424 resp_msg[2]
*425 resp_msg[3]
*426 resp_msg[4]
*427 resp_msg[5]
*428 resp_msg[6]
*429 resp_msg[7]
*430 resp_msg[8]
*431 resp_msg[9]
*432 resp_rdy
*433 resp_val
*434 net14
*435 net15
*436 net16
*437 net17
*438 net18
*439 net19
*440 net20
*441 net21
*442 net22
*443 net23
*444 net24
*445 net25
*446 net26
*447 net27
*448 net28
*449 net29
*450 net30
*451 net31
*452 net32
*453 net33
*454 net34
*455 net35
*456 net36
*457 net37
*458 net38
*459 net39
*460 net40
*461 net41
*462 net42
*463 net43
*464 net44
*465 net45
*466 net46
*467 net47
*468 net48
*469 net49
*470 net50
*471 net51
*472 net52
*473 net53
*474 clknet_0_clk
*475 clknet_2_0__leaf_clk
*476 clknet_2_1__leaf_clk
*477 clknet_2_2__leaf_clk
*478 clknet_2_3__leaf_clk
*479 net54
*480 net55
*481 net56
*482 net57
*483 net58
*484 net59
*485 net60
*486 net61
*487 net62
*488 net63
*489 net79
*490 net80
*491 net81
*492 net82
*493 net83
*494 _345_
*495 PHY_14
*496 _347_
*497 _348_
*498 _349_
*499 _350_
*500 _351_
*501 _352_
*502 _353_
*503 _354_
*504 _355_
*505 _356_
*506 _357_
*507 _358_
*508 _359_
*509 _360_
*510 _361_
*511 _362_
*512 _363_
*513 _364_
*514 _365_
*515 _366_
*516 _367_
*517 PHY_13
*518 _369_
*519 _370_
*520 _371_
*521 _372_
*522 _373_
*523 _374_
*524 _375_
*525 _376_
*526 _377_
*527 _378_
*528 _379_
*529 _380_
*530 _381_
*531 _382_
*532 _383_
*533 _384_
*534 _385_
*535 _386_
*536 _387_
*537 _388_
*538 _389_
*539 _390_
*540 _391_
*541 _392_
*542 _393_
*543 _394_
*544 _395_
*545 _396_
*546 _397_
*547 _398_
*548 _399_
*549 _400_
*550 _401_
*551 _402_
*552 _403_
*553 _404_
*554 _405_
*555 _406_
*556 _407_
*557 _408_
*558 _409_
*559 _410_
*560 _411_
*561 _412_
*562 _413_
*563 _414_
*564 _415_
*565 _416_
*566 _417_
*567 _418_
*568 _419_
*569 _420_
*570 _421_
*571 _422_
*572 _423_
*573 _424_
*574 _425_
*575 _426_
*576 _427_
*577 _428_
*578 _429_
*579 _430_
*580 _431_
*581 _432_
*582 _433_
*583 _434_
*584 _435_
*585 _436_
*586 _437_
*587 _438_
*588 _439_
*589 _440_
*590 _441_
*591 _442_
*592 _443_
*593 _444_
*594 _445_
*595 _446_
*596 _447_
*597 _448_
*598 _449_
*599 _450_
*600 _451_
*601 _452_
*602 _453_
*603 _454_
*604 _455_
*605 _456_
*606 _457_
*607 _458_
*608 _459_
*609 _460_
*610 _461_
*611 _462_
*612 _463_
*613 _464_
*614 _465_
*615 _466_
*616 _467_
*617 _468_
*618 _469_
*619 _470_
*620 _471_
*621 _472_
*622 _473_
*623 _474_
*624 _475_
*625 _476_
*626 _477_
*627 _478_
*628 _479_
*629 _480_
*630 _481_
*631 _482_
*632 _483_
*633 _484_
*634 _485_
*635 _486_
*636 _487_
*637 _488_
*638 _489_
*639 _490_
*640 PHY_12
*641 _492_
*642 _493_
*643 PHY_11
*644 PHY_10
*645 PHY_9
*646 _497_
*647 _498_
*648 PHY_8
*649 _500_
*650 _501_
*651 PHY_7
*652 _503_
*653 _504_
*654 _505_
*655 _506_
*656 _507_
*657 _508_
*658 _509_
*659 _510_
*660 _511_
*661 _512_
*662 _513_
*663 _514_
*664 _515_
*665 _516_
*666 _517_
*667 PHY_6
*668 _519_
*669 _520_
*670 PHY_5
*671 _522_
*672 _523_
*673 _524_
*674 _525_
*675 _526_
*676 _527_
*677 _528_
*678 _529_
*679 _530_
*680 _531_
*681 _532_
*682 _533_
*683 PHY_4
*684 PHY_3
*685 _536_
*686 _537_
*687 _538_
*688 _539_
*689 _540_
*690 _541_
*691 _542_
*692 _543_
*693 _544_
*694 _545_
*695 _546_
*696 _547_
*697 _548_
*698 _549_
*699 _550_
*700 _551_
*701 _552_
*702 _553_
*703 _554_
*704 _555_
*705 _556_
*706 _557_
*707 _558_
*708 _559_
*709 _560_
*710 _561_
*711 _562_
*712 _563_
*713 _564_
*714 _565_
*715 _566_
*716 _567_
*717 _568_
*718 _569_
*719 _570_
*720 _571_
*721 _572_
*722 _573_
*723 _574_
*724 _575_
*725 _576_
*726 _577_
*727 _578_
*728 PHY_2
*729 _580_
*730 _581_
*731 PHY_1
*732 _583_
*733 _584_
*734 _585_
*735 PHY_0
*736 _587_
*737 _588_
*738 _589_
*739 _590_
*740 _591_
*741 _592_
*742 _593_
*743 _594_
*744 _595_
*745 _596_
*746 _597_
*747 _598_
*748 _599_
*749 _600_
*750 _601_
*751 _602_
*752 _603_
*753 _604_
*754 _605_
*755 _606_
*756 _607_
*757 _608_
*758 _609_
*759 _610_
*760 _611_
*761 _612_
*762 _613_
*763 _614_
*764 _615_
*765 _616_
*766 _617_
*767 _618_
*768 _619_
*769 _620_
*770 _621_
*771 _622_
*772 _623_
*773 _624_
*774 _625_
*775 _626_
*776 _627_
*777 _628_
*778 _629_
*779 _630_
*780 _631_
*781 _632_
*782 _633_
*783 _634_
*784 _635_
*785 _636_
*786 _637_
*787 _638_
*788 _639_
*789 _640_
*790 _641_
*791 _642_
*792 _643_
*793 _644_
*794 _645_
*795 _646_
*796 _647_
*797 _648_
*798 _649_
*799 _650_
*800 _651_
*801 _652_
*802 _653_
*803 _654_
*804 _655_
*805 _656_
*806 _657_
*807 _658_
*808 _659_
*809 _660_
*810 _661_
*811 _662_
*812 _663_
*813 _664_
*814 _665_
*815 _666_
*816 _667_
*817 _668_
*818 _669_
*819 _670_
*820 _671_
*821 _672_
*822 _673_
*823 _674_
*824 _675_
*825 _676_
*826 _677_
*827 _678_
*828 _679_
*829 _680_
*830 _681_
*831 _682_
*832 _683_
*833 _684_
*834 _685_
*835 _686_
*836 _687_
*837 _688_
*838 _689_
*839 _690_
*840 _691_
*841 _692_
*842 _693_
*843 _694_
*844 _695_
*845 _696_
*846 _697_
*847 _698_
*848 _699_
*849 _700_
*850 _701_
*851 _702_
*852 _703_
*853 _704_
*854 _705_
*855 _706_
*856 PHY_15
*857 PHY_16
*858 PHY_17
*859 PHY_18
*860 PHY_19
*861 PHY_20
*862 PHY_21
*863 PHY_22
*864 PHY_23
*865 PHY_24
*866 PHY_25
*867 PHY_26
*868 PHY_27
*869 PHY_28
*870 PHY_29
*871 PHY_30
*872 PHY_31
*873 PHY_32
*874 PHY_33
*875 PHY_34
*876 PHY_35
*877 PHY_36
*878 PHY_37
*879 PHY_38
*880 PHY_39
*881 PHY_40
*882 PHY_41
*883 input1
*884 input2
*885 input3
*886 input4
*887 input5
*888 input6
*889 input7
*890 input8
*891 input9
*892 input10
*893 input11
*894 input12
*895 input13
*896 input14
*897 input15
*898 input16
*899 input17
*900 input18
*901 input19
*902 input20
*903 input21
*904 input22
*905 input23
*906 input24
*907 input25
*908 input26
*909 input27
*910 input28
*911 input29
*912 input30
*913 input31
*914 input32
*915 input33
*916 input34
*917 input35
*918 output36
*919 output37
*920 output38
*921 output39
*922 output40
*923 output41
*924 output42
*925 output43
*926 output44
*927 output45
*928 output46
*929 output47
*930 output48
*931 output49
*932 output50
*933 output51
*934 output52
*935 output53
*936 clkbuf_0_clk
*937 clkbuf_2_0__f_clk
*938 clkbuf_2_1__f_clk
*939 clkbuf_2_2__f_clk
*940 clkbuf_2_3__f_clk
*941 rebuffer1
*942 rebuffer2
*943 rebuffer3
*944 rebuffer4
*945 rebuffer5
*946 rebuffer6
*947 rebuffer7
*948 rebuffer8
*949 rebuffer9
*950 rebuffer10
*951 rebuffer26
*952 rebuffer27
*953 rebuffer28
*954 rebuffer29
*955 split30
*956 FILLER_0_0_1
*957 FILLER_0_0_17
*958 FILLER_0_0_21
*959 FILLER_0_0_108
*960 FILLER_0_0_120
*961 FILLER_0_0_128
*962 FILLER_0_0_133
*963 FILLER_0_0_149
*964 FILLER_0_0_157
*965 FILLER_0_0_159
*966 FILLER_0_1_1
*967 FILLER_0_1_17
*968 FILLER_0_1_32
*969 FILLER_0_1_36
*970 FILLER_0_1_38
*971 FILLER_0_1_134
*972 FILLER_0_1_150
*973 FILLER_0_1_158
*974 FILLER_0_2_1
*975 FILLER_0_2_9
*976 FILLER_0_2_11
*977 FILLER_0_2_29
*978 FILLER_0_2_31
*979 FILLER_0_2_61
*980 FILLER_0_2_65
*981 FILLER_0_2_69
*982 FILLER_0_2_77
*983 FILLER_0_2_81
*984 FILLER_0_2_85
*985 FILLER_0_2_100
*986 FILLER_0_2_104
*987 FILLER_0_2_109
*988 FILLER_0_2_120
*989 FILLER_0_2_124
*990 FILLER_0_2_126
*991 FILLER_0_2_134
*992 FILLER_0_2_150
*993 FILLER_0_2_158
*994 FILLER_0_3_1
*995 FILLER_0_3_17
*996 FILLER_0_3_31
*997 FILLER_0_3_33
*998 FILLER_0_3_36
*999 FILLER_0_3_40
*1000 FILLER_0_3_49
*1001 FILLER_0_3_58
*1002 FILLER_0_3_97
*1003 FILLER_0_3_144
*1004 FILLER_0_4_1
*1005 FILLER_0_4_23
*1006 FILLER_0_4_30
*1007 FILLER_0_4_38
*1008 FILLER_0_4_53
*1009 FILLER_0_4_60
*1010 FILLER_0_4_64
*1011 FILLER_0_4_81
*1012 FILLER_0_4_83
*1013 FILLER_0_4_141
*1014 FILLER_0_4_143
*1015 FILLER_0_4_154
*1016 FILLER_0_4_158
*1017 FILLER_0_5_11
*1018 FILLER_0_5_15
*1019 FILLER_0_5_17
*1020 FILLER_0_5_28
*1021 FILLER_0_5_32
*1022 FILLER_0_5_39
*1023 FILLER_0_5_43
*1024 FILLER_0_5_54
*1025 FILLER_0_5_65
*1026 FILLER_0_5_69
*1027 FILLER_0_5_74
*1028 FILLER_0_5_78
*1029 FILLER_0_5_82
*1030 FILLER_0_5_86
*1031 FILLER_0_5_95
*1032 FILLER_0_5_103
*1033 FILLER_0_5_107
*1034 FILLER_0_5_109
*1035 FILLER_0_5_135
*1036 FILLER_0_5_155
*1037 FILLER_0_5_159
*1038 FILLER_0_6_4
*1039 FILLER_0_6_11
*1040 FILLER_0_6_16
*1041 FILLER_0_6_20
*1042 FILLER_0_6_24
*1043 FILLER_0_6_31
*1044 FILLER_0_6_33
*1045 FILLER_0_6_43
*1046 FILLER_0_6_45
*1047 FILLER_0_6_51
*1048 FILLER_0_6_55
*1049 FILLER_0_6_60
*1050 FILLER_0_6_64
*1051 FILLER_0_6_82
*1052 FILLER_0_6_109
*1053 FILLER_0_6_111
*1054 FILLER_0_6_117
*1055 FILLER_0_6_134
*1056 FILLER_0_6_139
*1057 FILLER_0_6_150
*1058 FILLER_0_6_157
*1059 FILLER_0_6_159
*1060 FILLER_0_7_1
*1061 FILLER_0_7_31
*1062 FILLER_0_7_51
*1063 FILLER_0_7_61
*1064 FILLER_0_7_77
*1065 FILLER_0_7_85
*1066 FILLER_0_7_89
*1067 FILLER_0_7_98
*1068 FILLER_0_7_102
*1069 FILLER_0_7_104
*1070 FILLER_0_7_108
*1071 FILLER_0_7_116
*1072 FILLER_0_7_135
*1073 FILLER_0_7_151
*1074 FILLER_0_7_159
*1075 FILLER_0_8_17
*1076 FILLER_0_8_19
*1077 FILLER_0_8_28
*1078 FILLER_0_8_34
*1079 FILLER_0_8_55
*1080 FILLER_0_8_83
*1081 FILLER_0_8_87
*1082 FILLER_0_8_89
*1083 FILLER_0_8_98
*1084 FILLER_0_8_113
*1085 FILLER_0_8_147
*1086 FILLER_0_8_155
*1087 FILLER_0_8_159
*1088 FILLER_0_9_5
*1089 FILLER_0_9_7
*1090 FILLER_0_9_34
*1091 FILLER_0_9_53
*1092 FILLER_0_9_57
*1093 FILLER_0_9_65
*1094 FILLER_0_9_74
*1095 FILLER_0_9_116
*1096 FILLER_0_9_144
*1097 FILLER_0_9_155
*1098 FILLER_0_10_4
*1099 FILLER_0_10_61
*1100 FILLER_0_10_70
*1101 FILLER_0_10_78
*1102 FILLER_0_10_87
*1103 FILLER_0_10_95
*1104 FILLER_0_10_104
*1105 FILLER_0_10_112
*1106 FILLER_0_10_123
*1107 FILLER_0_11_21
*1108 FILLER_0_11_29
*1109 FILLER_0_11_35
*1110 FILLER_0_11_55
*1111 FILLER_0_11_59
*1112 FILLER_0_11_61
*1113 FILLER_0_11_103
*1114 FILLER_0_11_107
*1115 FILLER_0_11_109
*1116 FILLER_0_11_123
*1117 FILLER_0_11_145
*1118 FILLER_0_11_150
*1119 FILLER_0_11_152
*1120 FILLER_0_11_156
*1121 FILLER_0_12_1
*1122 FILLER_0_12_9
*1123 FILLER_0_12_11
*1124 FILLER_0_12_15
*1125 FILLER_0_12_19
*1126 FILLER_0_12_23
*1127 FILLER_0_12_27
*1128 FILLER_0_12_63
*1129 FILLER_0_12_71
*1130 FILLER_0_12_75
*1131 FILLER_0_12_77
*1132 FILLER_0_12_107
*1133 FILLER_0_12_122
*1134 FILLER_0_12_149
*1135 FILLER_0_12_157
*1136 FILLER_0_12_159
*1137 FILLER_0_13_1
*1138 FILLER_0_13_13
*1139 FILLER_0_13_17
*1140 FILLER_0_13_22
*1141 FILLER_0_13_28
*1142 FILLER_0_13_35
*1143 FILLER_0_13_65
*1144 FILLER_0_13_73
*1145 FILLER_0_13_77
*1146 FILLER_0_13_104
*1147 FILLER_0_13_106
*1148 FILLER_0_13_114
*1149 FILLER_0_13_116
*1150 FILLER_0_13_135
*1151 FILLER_0_13_151
*1152 FILLER_0_13_159
*1153 FILLER_0_14_20
*1154 FILLER_0_14_55
*1155 FILLER_0_14_73
*1156 FILLER_0_14_88
*1157 FILLER_0_14_122
*1158 FILLER_0_14_136
*1159 FILLER_0_14_152
*1160 FILLER_0_15_26
*1161 FILLER_0_15_49
*1162 FILLER_0_15_91
*1163 FILLER_0_15_134
*1164 FILLER_0_15_150
*1165 FILLER_0_15_158
*1166 FILLER_0_16_30
*1167 FILLER_0_16_51
*1168 FILLER_0_16_57
*1169 FILLER_0_16_63
*1170 FILLER_0_16_83
*1171 FILLER_0_16_87
*1172 FILLER_0_16_89
*1173 FILLER_0_16_94
*1174 FILLER_0_16_102
*1175 FILLER_0_16_110
*1176 FILLER_0_16_129
*1177 FILLER_0_16_145
*1178 FILLER_0_16_153
*1179 FILLER_0_16_157
*1180 FILLER_0_16_159
*1181 FILLER_0_17_1
*1182 FILLER_0_17_5
*1183 FILLER_0_17_9
*1184 FILLER_0_17_13
*1185 FILLER_0_17_19
*1186 FILLER_0_17_47
*1187 FILLER_0_17_55
*1188 FILLER_0_17_59
*1189 FILLER_0_17_79
*1190 FILLER_0_17_83
*1191 FILLER_0_17_91
*1192 FILLER_0_17_95
*1193 FILLER_0_17_99
*1194 FILLER_0_17_104
*1195 FILLER_0_17_112
*1196 FILLER_0_17_132
*1197 FILLER_0_17_135
*1198 FILLER_0_17_151
*1199 FILLER_0_17_159
*1200 FILLER_0_18_1
*1201 FILLER_0_18_9
*1202 FILLER_0_18_27
*1203 FILLER_0_18_31
*1204 FILLER_0_18_43
*1205 FILLER_0_18_51
*1206 FILLER_0_18_56
*1207 FILLER_0_18_58
*1208 FILLER_0_18_66
*1209 FILLER_0_18_74
*1210 FILLER_0_18_78
*1211 FILLER_0_18_80
*1212 FILLER_0_18_85
*1213 FILLER_0_18_89
*1214 FILLER_0_18_94
*1215 FILLER_0_18_106
*1216 FILLER_0_18_110
*1217 FILLER_0_18_116
*1218 FILLER_0_18_118
*1219 FILLER_0_18_127
*1220 FILLER_0_18_131
*1221 FILLER_0_18_137
*1222 FILLER_0_18_153
*1223 FILLER_0_18_157
*1224 FILLER_0_18_159
*1225 FILLER_0_19_1
*1226 FILLER_0_19_33
*1227 FILLER_0_19_41
*1228 FILLER_0_19_45
*1229 FILLER_0_19_125
*1230 FILLER_0_19_146
*1231 FILLER_0_19_154
*1232 FILLER_0_19_158
*1233 FILLER_0_20_1
*1234 FILLER_0_20_33
*1235 FILLER_0_20_40
*1236 FILLER_0_20_48
*1237 FILLER_0_20_52
*1238 FILLER_0_20_91
*1239 FILLER_0_20_96
*1240 FILLER_0_20_103
*1241 FILLER_0_20_107
*1242 FILLER_0_20_134
*1243 FILLER_0_20_139
*1244 FILLER_0_20_155
*1245 FILLER_0_20_159

*PORTS
clk I
req_msg[0] I
req_msg[10] I
req_msg[11] I
req_msg[12] I
req_msg[13] I
req_msg[14] I
req_msg[15] I
req_msg[16] I
req_msg[17] I
req_msg[18] I
req_msg[19] I
req_msg[1] I
req_msg[20] I
req_msg[21] I
req_msg[22] I
req_msg[23] I
req_msg[24] I
req_msg[25] I
req_msg[26] I
req_msg[27] I
req_msg[28] I
req_msg[29] I
req_msg[2] I
req_msg[30] I
req_msg[31] I
req_msg[3] I
req_msg[4] I
req_msg[5] I
req_msg[6] I
req_msg[7] I
req_msg[8] I
req_msg[9] I
req_rdy O
req_val I
reset I
resp_msg[0] O
resp_msg[10] O
resp_msg[11] O
resp_msg[12] O
resp_msg[13] O
resp_msg[14] O
resp_msg[15] O
resp_msg[1] O
resp_msg[2] O
resp_msg[3] O
resp_msg[4] O
resp_msg[5] O
resp_msg[6] O
resp_msg[7] O
resp_msg[8] O
resp_msg[9] O
resp_rdy I
resp_val O

*D_NET *1 0.000152612
*CONN
*I *821:D I *D DFF_X2
*I *653:ZN O *D OAI21_X1
*CAP
1 *821:D 5.30856e-05
2 *653:ZN 5.30856e-05
3 *821:D *653:A 1.78252e-06
4 *821:D *653:B2 3.90891e-05
5 *821:D *821:CK 5.56936e-06
6 *821:D *175:6 0
*RES
1 *653:ZN *821:D 26.0357 
*END

*D_NET *2 0.000269303
*CONN
*I *822:D I *D DFF_X1
*I *655:ZN O *D OAI21_X1
*CAP
1 *822:D 7.49394e-05
2 *655:ZN 7.49394e-05
3 *822:D *639:A 6.57345e-05
4 *822:D *655:B2 2.43548e-06
5 *822:D *708:B 0
6 *822:D *478:75 5.12539e-05
*RES
1 *655:ZN *822:D 21.3929 
*END

*D_NET *3 0.000343532
*CONN
*I *823:D I *D DFF_X2
*I *647:ZN O *D OAI22_X1
*CAP
1 *823:D 0.000105462
2 *647:ZN 0.000105462
3 *823:D *639:A 1.46998e-05
4 *823:D *642:A1 1.43238e-06
5 *823:D *647:A2 2.00152e-05
6 *823:D *647:B1 2.39679e-06
7 *823:D *647:B2 1.68643e-06
8 *823:D *654:A2 1.32348e-05
9 *823:D *655:A 2.83434e-06
10 *823:D *4:20 3.41146e-05
11 *823:D *165:12 6.38784e-06
12 *823:D *347:8 3.06504e-05
13 *823:D *478:61 5.15507e-06
*RES
1 *647:ZN *823:D 24.25 
*END

*D_NET *4 0.00156315
*CONN
*I *649:A2 I *D AND3_X1
*I *666:A2 I *D NAND2_X4
*I *727:A4 I *D NAND4_X4
*I *724:A3 I *D NAND3_X4
*I *821:QN O *D DFF_X2
*CAP
1 *649:A2 1.02257e-05
2 *666:A2 0
3 *727:A4 7.9231e-05
4 *724:A3 8.71307e-06
5 *821:QN 0.000155813
6 *4:37 0.000151254
7 *4:20 0.000209737
8 *4:10 0.00029504
9 *649:A2 *642:A1 2.39679e-06
10 *649:A2 *649:A3 2.39679e-06
11 *649:A2 *653:A 9.57492e-07
12 *649:A2 *168:21 1.26998e-05
13 *724:A3 *187:14 0
14 *727:A4 *727:A3 5.8357e-06
15 *727:A4 *189:10 3.09144e-05
16 *727:A4 *189:18 3.24108e-07
17 *727:A4 *241:10 5.90251e-06
18 *727:A4 *478:12 9.21425e-05
19 *727:A4 *493:8 1.73125e-05
20 *4:10 *653:A 0.00012095
21 *4:10 *821:CK 1.9777e-05
22 *4:10 *456:10 1.36076e-05
23 *4:10 *456:40 0
24 *4:10 *456:42 0
25 *4:10 *456:44 0
26 *4:20 *655:A 2.94455e-05
27 *4:20 *724:A1 2.61827e-06
28 *4:20 *730:A2 3.76666e-05
29 *4:20 *821:CK 6.82786e-06
30 *4:20 *165:12 0
31 *4:20 *237:18 1.80259e-05
32 *4:20 *237:77 3.54507e-05
33 *4:20 *456:44 0
34 *4:20 *478:55 2.07734e-05
35 *4:20 *478:61 3.35796e-05
36 *4:37 *665:A1 0
37 *4:37 *724:A1 1.39839e-06
38 *4:37 *724:A2 9.55607e-06
39 *4:37 *241:10 2.02052e-05
40 *4:37 *478:55 3.10804e-05
41 *4:37 *493:8 4.71711e-05
42 *823:D *4:20 3.41146e-05
*RES
1 *821:QN *4:10 28.8929 
2 *4:10 *4:20 22.7143 
3 *4:20 *724:A3 5.92857 
4 *4:20 *4:37 19.8214 
5 *4:37 *727:A4 25 
6 *4:37 *666:A2 5 
7 *4:10 *649:A2 11.25 
*END

*D_NET *5 0.000108305
*CONN
*I *824:D I *D DFF_X1
*I *671:ZN O *D OAI21_X1
*CAP
1 *824:D 5.35435e-05
2 *671:ZN 5.35435e-05
3 *824:D *497:A 0
4 *824:D *516:A1 0
5 *824:D *824:CK 1.21774e-06
*RES
1 *671:ZN *824:D 15.3571 
*END

*D_NET *6 0.000118576
*CONN
*I *825:D I *D DFF_X1
*I *674:ZN O *D OAI21_X1
*CAP
1 *825:D 5.42692e-05
2 *674:ZN 5.42692e-05
3 *825:D *494:A 3.23723e-07
4 *825:D *674:A 7.31725e-06
5 *825:D *674:B1 0
6 *825:D *674:B2 2.39679e-06
7 *825:D *807:B1 0
8 *825:D *37:6 0
*RES
1 *674:ZN *825:D 15.3571 
*END

*D_NET *7 0.000322259
*CONN
*I *826:D I *D DFF_X1
*I *678:ZN O *D OAI21_X1
*CAP
1 *826:D 5.94574e-05
2 *678:ZN 5.94574e-05
3 *826:D *747:A1 1.62377e-05
4 *826:D *827:CK 1.66988e-05
5 *826:D *840:CK 0.000132365
6 *826:D *842:CK 7.19036e-06
7 *826:D *189:357 2.94533e-05
8 *826:D *189:391 1.39839e-06
9 *826:D *237:127 0
*RES
1 *678:ZN *826:D 30.5 
*END

*D_NET *8 0.000171341
*CONN
*I *827:D I *D DFF_X1
*I *682:ZN O *D OAI21_X1
*CAP
1 *827:D 8.56705e-05
2 *682:ZN 8.56705e-05
3 *827:D *682:B1 0
4 *827:D *827:CK 0
*RES
1 *682:ZN *827:D 18.5714 
*END

*D_NET *9 8.93206e-05
*CONN
*I *828:D I *D DFF_X1
*I *687:ZN O *D OAI21_X1
*CAP
1 *828:D 2.84752e-05
2 *687:ZN 2.84752e-05
3 *828:D *636:A4 9.55734e-06
4 *828:D *687:A 1.70588e-05
5 *828:D *232:84 5.75407e-06
*RES
1 *687:ZN *828:D 13.75 
*END

*D_NET *10 8.0352e-05
*CONN
*I *829:D I *D DFF_X1
*I *691:ZN O *D OAI21_X1
*CAP
1 *829:D 4.0176e-05
2 *691:ZN 4.0176e-05
3 *829:D *690:A2 0
4 *829:D *829:CK 0
5 *829:D *456:155 0
*RES
1 *691:ZN *829:D 13.75 
*END

*D_NET *11 0.000223442
*CONN
*I *830:D I *D DFF_X1
*I *694:ZN O *D OAI21_X1
*CAP
1 *830:D 8.59479e-05
2 *694:ZN 8.59479e-05
3 *830:D resp_msg[7] 1.88334e-06
4 *830:D *692:B 0
5 *830:D *693:A1 6.32461e-06
6 *830:D *694:A 5.92957e-06
7 *830:D *847:D 0
8 *830:D *932:A 4.21607e-06
9 *830:D *189:71 2.6856e-05
10 *830:D *456:103 0
11 *830:D *456:128 0
12 *830:D *476:117 6.33653e-06
*RES
1 *694:ZN *830:D 28.9643 
*END

*D_NET *12 0.000223904
*CONN
*I *831:D I *D DFF_X1
*I *697:ZN O *D OAI21_X1
*CAP
1 *831:D 7.2243e-05
2 *697:ZN 7.2243e-05
3 *831:D *697:A 1.11258e-05
4 *831:D *189:49 1.72426e-05
5 *831:D *237:85 1.11357e-05
6 *831:D *241:260 0
7 *831:D *362:38 3.99139e-05
*RES
1 *697:ZN *831:D 30 
*END

*D_NET *13 0.000285348
*CONN
*I *832:D I *D DFF_X1
*I *700:ZN O *D OAI21_X1
*CAP
1 *832:D 6.20394e-05
2 *700:ZN 6.20394e-05
3 *832:D *189:43 0.000118829
4 *832:D *189:45 4.24402e-05
5 *832:D *241:260 0
6 *832:D *456:91 0
7 *832:D *456:93 0
*RES
1 *700:ZN *832:D 28.3929 
*END

*D_NET *14 0.000145858
*CONN
*I *833:D I *D DFF_X1
*I *704:ZN O *D OAI21_X1
*CAP
1 *833:D 5.04446e-05
2 *704:ZN 5.04446e-05
3 *833:D *542:A2 0
4 *833:D *637:A1 4.79202e-06
5 *833:D *704:A 2.52965e-06
6 *833:D *704:B1 0
7 *833:D *189:116 3.76469e-05
*RES
1 *704:ZN *833:D 16.0357 
*END

*D_NET *15 0.000241915
*CONN
*I *834:D I *D DFF_X1
*I *707:ZN O *D OAI21_X1
*CAP
1 *834:D 5.17366e-05
2 *707:ZN 5.17366e-05
3 *834:D *834:CK 0
4 *834:D *164:14 6.92212e-05
5 *834:D *231:39 0
6 *834:D *456:408 6.92212e-05
*RES
1 *707:ZN *834:D 27.3929 
*END

*D_NET *16 9.53995e-05
*CONN
*I *835:D I *D DFF_X1
*I *710:ZN O *D OAI21_X1
*CAP
1 *835:D 2.98481e-05
2 *710:ZN 2.98481e-05
3 *835:D *710:B2 2.80752e-05
4 *835:D *921:A 0
5 *835:D *351:25 7.62806e-06
6 *835:D *459:8 0
*RES
1 *710:ZN *835:D 13.75 
*END

*D_NET *17 0.000139909
*CONN
*I *836:D I *D DFF_X1
*I *713:ZN O *D OAI21_X1
*CAP
1 *836:D 3.71727e-05
2 *713:ZN 3.71727e-05
3 *836:D *711:A 7.19036e-06
4 *836:D *711:S 4.16281e-06
5 *836:D *713:A 1.25777e-05
6 *836:D *713:B1 2.28909e-05
7 *836:D *189:228 1.87418e-05
*RES
1 *713:ZN *836:D 15.25 
*END

*D_NET *18 0.000242844
*CONN
*I *837:D I *D DFF_X1
*I *716:ZN O *D OAI21_X1
*CAP
1 *837:D 8.66542e-05
2 *716:ZN 8.66542e-05
3 *837:D *804:B2 1.2793e-05
4 *837:D *837:CK 1.07779e-05
5 *837:D *189:148 4.59643e-05
*RES
1 *716:ZN *837:D 21.3929 
*END

*D_NET *19 0.000190995
*CONN
*I *838:D I *D DFF_X1
*I *719:ZN O *D OAI21_X1
*CAP
1 *838:D 4.88825e-05
2 *719:ZN 4.88825e-05
3 *838:D *629:A 2.39679e-06
4 *838:D *717:A 1.26972e-05
5 *838:D *812:B1 1.9695e-05
6 *838:D *924:A 3.76691e-05
7 *838:D *189:242 1.72426e-05
8 *838:D *234:32 3.52904e-06
*RES
1 *719:ZN *838:D 26.7143 
*END

*D_NET *20 0.000134326
*CONN
*I *839:D I *D DFF_X1
*I *722:ZN O *D OAI21_X1
*CAP
1 *839:D 3.87727e-05
2 *722:ZN 3.87727e-05
3 *839:D *722:B1 5.61423e-05
4 *839:D *124:18 6.38328e-07
5 *839:D *355:38 0
*RES
1 *722:ZN *839:D 15.25 
*END

*D_NET *21 0.000211712
*CONN
*I *840:D I *D DFF_X1
*I *737:ZN O *D NAND3_X1
*CAP
1 *840:D 7.00901e-05
2 *737:ZN 7.00901e-05
3 *840:D *668:S 0
4 *840:D *737:A1 1.83288e-05
5 *840:D *737:A3 4.45934e-05
6 *840:D *241:120 8.60954e-06
7 *840:D *456:241 0
*RES
1 *737:ZN *840:D 28.5714 
*END

*D_NET *22 0.000144358
*CONN
*I *841:D I *D DFF_X2
*I *742:ZN O *D NAND3_X1
*CAP
1 *841:D 6.57721e-05
2 *742:ZN 6.57721e-05
3 *841:D *668:B 0
4 *841:D *740:A1 1.04584e-06
5 *841:D *742:A1 8.30282e-06
6 *841:D *742:A2 3.46521e-06
7 *841:D *919:A 0
*RES
1 *742:ZN *841:D 17.4643 
*END

*D_NET *23 0.000359065
*CONN
*I *842:D I *D DFF_X1
*I *747:ZN O *D NAND3_X1
*CAP
1 *842:D 9.2978e-05
2 *747:ZN 9.2978e-05
3 *842:D *676:B1 0
4 *842:D *747:A2 9.14865e-06
5 *842:D *357:14 9.93763e-06
6 *842:D *456:215 0.000149336
7 *842:D *456:226 4.68638e-06
*RES
1 *747:ZN *842:D 32.8929 
*END

*D_NET *24 0.000118802
*CONN
*I *843:D I *D DFF_X1
*I *753:ZN O *D NAND3_X1
*CAP
1 *843:D 4.21835e-05
2 *753:ZN 4.21835e-05
3 *843:D *753:A2 1.7326e-06
4 *843:D *753:A3 2.56721e-05
5 *843:D *843:CK 1.91498e-06
6 *843:D *475:33 5.11574e-06
*RES
1 *753:ZN *843:D 15.1786 
*END

*D_NET *25 0.000226524
*CONN
*I *844:D I *D DFF_X2
*I *758:ZN O *D NAND3_X1
*CAP
1 *844:D 8.79454e-05
2 *758:ZN 8.79454e-05
3 *844:D resp_msg[4] 0
4 *844:D *685:B 0
5 *844:D *757:A2 0
6 *844:D *928:A 0
7 *844:D *475:33 5.06332e-05
*RES
1 *758:ZN *844:D 28.8214 
*END

*D_NET *26 0.000146527
*CONN
*I *845:D I *D DFF_X1
*I *764:ZN O *D NAND3_X1
*CAP
1 *845:D 6.80387e-05
2 *764:ZN 6.80387e-05
3 *845:D *762:A1 2.39679e-06
4 *845:D *762:A2 0
5 *845:D *763:A2 4.46374e-06
6 *845:D *764:A2 2.37093e-06
7 *845:D *845:CK 1.21774e-06
8 *845:D *456:140 0
*RES
1 *764:ZN *845:D 17.4643 
*END

*D_NET *27 0.00017471
*CONN
*I *846:D I *D DFF_X2
*I *769:ZN O *D NAND3_X1
*CAP
1 *846:D 6.05288e-05
2 *769:ZN 6.05288e-05
3 *846:D *767:A1 0
4 *846:D *769:A1 5.49418e-07
5 *846:D *769:A2 4.68749e-06
6 *846:D *845:CK 1.92603e-05
7 *846:D *846:CK 9.56198e-06
8 *846:D *456:136 1.95934e-05
*RES
1 *769:ZN *846:D 17.8214 
*END

*D_NET *28 0.000179485
*CONN
*I *847:D I *D DFF_X1
*I *775:ZN O *D NAND3_X1
*CAP
1 *847:D 5.95755e-05
2 *775:ZN 5.95755e-05
3 *847:D *773:A1 5.52692e-06
4 *847:D *773:A2 3.19164e-07
5 *847:D *775:A3 1.32348e-05
6 *847:D *847:CK 7.34989e-06
7 *847:D *456:103 3.39033e-05
8 *847:D *476:117 0
9 *830:D *847:D 0
*RES
1 *775:ZN *847:D 17.3571 
*END

*D_NET *29 0.000305766
*CONN
*I *848:D I *D DFF_X2
*I *780:ZN O *D NAND3_X1
*CAP
1 *848:D 0.000124139
2 *780:ZN 0.000124139
3 *848:D *619:A 1.58933e-05
4 *848:D *698:A 0
5 *848:D *780:A3 2.50734e-06
6 *848:D *241:244 0
7 *848:D *363:10 3.90865e-05
8 *848:D *456:85 0
*RES
1 *780:ZN *848:D 32.8214 
*END

*D_NET *30 0.000199371
*CONN
*I *849:D I *D DFF_X2
*I *786:ZN O *D NAND3_X1
*CAP
1 *849:D 7.78168e-05
2 *786:ZN 7.78168e-05
3 *849:D *785:A2 2.41529e-05
4 *849:D *786:A3 1.97916e-06
5 *849:D *241:260 1.76053e-05
*RES
1 *786:ZN *849:D 19.3929 
*END

*D_NET *31 8.43379e-05
*CONN
*I *850:D I *D DFF_X1
*I *791:ZN O *D NAND3_X1
*CAP
1 *850:D 4.00568e-05
2 *791:ZN 4.00568e-05
3 *850:D *702:B1 0
4 *850:D *788:A1 3.58605e-06
5 *850:D *850:CK 6.38328e-07
6 *850:D *231:39 0
*RES
1 *791:ZN *850:D 13.75 
*END

*D_NET *32 0.000194775
*CONN
*I *851:D I *D DFF_X2
*I *797:ZN O *D NAND2_X1
*CAP
1 *851:D 6.10772e-05
2 *797:ZN 6.10772e-05
3 *851:D *619:A 1.46861e-05
4 *851:D *797:A1 8.97657e-06
5 *851:D *797:A2 4.89584e-05
*RES
1 *797:ZN *851:D 19.1071 
*END

*D_NET *33 8.84204e-05
*CONN
*I *852:D I *D DFF_X2
*I *802:ZN O *D NAND3_X1
*CAP
1 *852:D 3.66516e-05
2 *802:ZN 3.66516e-05
3 *852:D *802:A1 3.10376e-06
4 *852:D *836:CK 2.86475e-06
5 *852:D *241:10 0
6 *852:D *352:12 9.14865e-06
*RES
1 *802:ZN *852:D 14.1786 
*END

*D_NET *34 0.00018484
*CONN
*I *853:D I *D DFF_X2
*I *808:ZN O *D NAND2_X1
*CAP
1 *853:D 5.87556e-05
2 *808:ZN 5.87556e-05
3 *853:D *807:B2 1.92742e-05
4 *853:D *477:96 4.8055e-05
*RES
1 *808:ZN *853:D 28.2143 
*END

*D_NET *35 0.000248509
*CONN
*I *854:D I *D DFF_X1
*I *813:ZN O *D NAND2_X1
*CAP
1 *854:D 6.58905e-05
2 *813:ZN 6.58905e-05
3 *854:D *580:A1 1.02238e-05
4 *854:D *580:A2 2.26437e-05
5 *854:D *805:A2 1.9695e-05
6 *854:D *813:A2 3.44133e-05
7 *854:D *854:CK 1.13947e-05
8 *854:D *119:10 1.83572e-05
*RES
1 *813:ZN *854:D 29.7143 
*END

*D_NET *36 0.000116795
*CONN
*I *855:D I *D DFF_X2
*I *820:ZN O *D NAND2_X1
*CAP
1 *855:D 4.28407e-05
2 *820:ZN 4.28407e-05
3 *855:D *819:A 4.71766e-06
4 *855:D *820:A2 1.56673e-05
5 *855:D *355:29 1.07289e-05
*RES
1 *820:ZN *855:D 15.3571 
*END
